# created with PyMOL 3.1.3
@<TRIPOS>MOLECULE
PIZ
33 33 1                 
SMALL
USER_CHARGES
@<TRIPOS>ATOM
1	 OB1	3.245	2.416	2.935	O.3	1	PIZ0	0.000	
2	  C7	2.526	2.245	4.185	C.3	1	PIZ0	0.000	
3	  C8	2.120	0.778	4.343	C.3	1	PIZ0	0.000	
4	 O13	1.187	0.429	3.319	O.3	1	PIZ0	0.000	
5	  P1	0.546	-1.041	3.181	P.3	1	PIZ0	0.000	
6	 O12	1.630	-2.046	3.097	O.co2	1	PIZ0	0.000	
7	 O11	-0.373	-1.349	4.467	O.co2	1	PIZ0	0.000	
8	  O1	-0.355	-1.111	1.849	O.3	1	PIZ0	0.000	
9	  C1	-0.975	-2.314	1.390	C.3	1	PIZ0	0.000	
10	  C2	-0.457	-2.654	-0.009	C.3	1	PIZ0	0.000	
11	  O2	-0.770	-1.586	-0.905	O.3	1	PIZ0	0.000	
12	  C3	-1.120	-3.942	-0.499	C.3	1	PIZ0	0.000	
13	  O3	-0.637	-4.260	-1.806	O.3	1	PIZ0	0.000	
14	  P3	0.135	-5.631	-2.146	P.3	1	PIZ0	0.000	
15	 O31	0.417	-5.710	-3.729	O.co2	1	PIZ0	0.000	
16	 O32	1.534	-5.671	-1.349	O.co2	1	PIZ0	0.000	
17	 O33	-0.700	-6.782	-1.735	O.co2	1	PIZ0	0.000	
18	  C4	-2.637	-3.747	-0.551	C.3	1	PIZ0	0.000	
19	  O4	-3.257	-4.950	-1.009	O.3	1	PIZ0	0.000	
20	  P4	-4.158	-5.020	-2.341	P.3	1	PIZ0	0.000	
21	 O41	-4.583	-6.547	-2.622	O.co2	1	PIZ0	0.000	
22	 O42	-5.480	-4.123	-2.143	O.co2	1	PIZ0	0.000	
23	 O43	-3.380	-4.505	-3.490	O.co2	1	PIZ0	0.000	
24	  C5	-3.155	-3.407	0.848	C.3	1	PIZ0	0.000	
25	  O5	-4.572	-3.225	0.800	O.3	1	PIZ0	0.000	
26	  P5	-5.601	-4.123	1.653	P.3	1	PIZ0	0.000	
27	 O51	-7.096	-3.558	1.457	O.co2	1	PIZ0	0.000	
28	 O52	-5.532	-5.648	1.143	O.co2	1	PIZ0	0.000	
29	 O53	-5.236	-4.065	3.086	O.co2	1	PIZ0	0.000	
30	  C6	-2.491	-2.119	1.339	C.3	1	PIZ0	0.000	
31	  O6	-2.976	-1.802	2.646	O.3	1	PIZ0	0.000	
32	  C9	1.273	3.123	4.177	C.3	1	PIZ0	0.000	
33	 OA1	0.363	2.659	3.145	O.3	1	PIZ0	0.000	
@<TRIPOS>BOND
1 1 2 1
2 2 3 1
3 2 32 1
4 3 4 1
5 4 5 1
6 5 6 2
7 5 7 1
8 5 8 1
9 8 9 1
10 9 10 1
11 9 30 1
12 10 11 1
13 10 12 1
14 12 13 1
15 12 18 1
16 13 14 1
17 14 15 1
18 14 16 1
19 14 17 2
20 18 19 1
21 18 24 1
22 19 20 1
23 20 21 1
24 20 22 1
25 20 23 2
26 24 25 1
27 24 30 1
28 25 26 1
29 26 27 1
30 26 28 1
31 26 29 2
32 30 31 1
33 32 33 1
@<TRIPOS>SUBSTRUCTURE
1	PIZ0	1	GROUP	1 ****	PIZ
