# created with PyMOL 3.1.3.1
@<TRIPOS>MOLECULE
PIZ
67 67 1                 
SMALL
USER_CHARGES
@<TRIPOS>ATOM
1	 CBG	21.529	2.013	-5.013	C.3	1	PIZ0	0.000	
2	 CBF	20.704	1.847	-3.735	C.3	1	PIZ0	0.000	
3	 CBE	19.224	2.072	-4.052	C.3	1	PIZ0	0.000	
4	 CBD	18.398	1.906	-2.774	C.3	1	PIZ0	0.000	
5	 CBC	16.918	2.131	-3.091	C.3	1	PIZ0	0.000	
6	 CBB	16.093	1.966	-1.813	C.3	1	PIZ0	0.000	
7	 CBA	14.613	2.190	-2.130	C.3	1	PIZ0	0.000	
8	 CB9	13.787	2.025	-0.852	C.3	1	PIZ0	0.000	
9	 CB8	12.307	2.249	-1.168	C.3	1	PIZ0	0.000	
10	 CB7	11.482	2.084	0.109	C.3	1	PIZ0	0.000	
11	 CB6	10.002	2.308	-0.207	C.3	1	PIZ0	0.000	
12	 CB5	9.176	2.143	1.070	C.3	1	PIZ0	0.000	
13	 CB4	7.696	2.367	0.754	C.3	1	PIZ0	0.000	
14	 CB3	6.871	2.202	2.031	C.3	1	PIZ0	0.000	
15	 CB2	5.391	2.426	1.715	C.3	1	PIZ0	0.000	
16	 CB1	4.578	2.264	2.973	C.2	1	PIZ0	0.000	
17	 OB2	5.126	1.996	4.016	O.co2	1	PIZ0	0.000	
18	 OB1	3.245	2.416	2.935	O.3	1	PIZ0	0.000	
19	  C7	2.526	2.245	4.185	C.3	1	PIZ0	0.000	
20	  C8	2.120	0.778	4.343	C.3	1	PIZ0	0.000	
21	 O13	1.187	0.429	3.319	O.3	1	PIZ0	0.000	
22	  P1	0.546	-1.041	3.181	P.3	1	PIZ0	0.000	
23	 O12	1.630	-2.046	3.097	O.co2	1	PIZ0	0.000	
24	 O11	-0.373	-1.349	4.467	O.co2	1	PIZ0	0.000	
25	  O1	-0.355	-1.111	1.849	O.3	1	PIZ0	0.000	
26	  C1	-0.975	-2.314	1.390	C.3	1	PIZ0	0.000	
27	  C2	-0.457	-2.654	-0.009	C.3	1	PIZ0	0.000	
28	  O2	-0.770	-1.586	-0.905	O.3	1	PIZ0	0.000	
29	  C3	-1.120	-3.942	-0.499	C.3	1	PIZ0	0.000	
30	  O3	-0.637	-4.260	-1.806	O.3	1	PIZ0	0.000	
31	  P3	0.135	-5.631	-2.146	P.3	1	PIZ0	0.000	
32	 O31	0.417	-5.710	-3.729	O.co2	1	PIZ0	0.000	
33	 O32	1.534	-5.671	-1.349	O.co2	1	PIZ0	0.000	
34	 O33	-0.700	-6.782	-1.735	O.co2	1	PIZ0	0.000	
35	  C4	-2.637	-3.747	-0.551	C.3	1	PIZ0	0.000	
36	  O4	-3.257	-4.950	-1.009	O.3	1	PIZ0	0.000	
37	  P4	-4.158	-5.020	-2.341	P.3	1	PIZ0	0.000	
38	 O41	-4.583	-6.547	-2.622	O.co2	1	PIZ0	0.000	
39	 O42	-5.480	-4.123	-2.143	O.co2	1	PIZ0	0.000	
40	 O43	-3.380	-4.505	-3.490	O.co2	1	PIZ0	0.000	
41	  C5	-3.155	-3.407	0.848	C.3	1	PIZ0	0.000	
42	  O5	-4.572	-3.225	0.800	O.3	1	PIZ0	0.000	
43	  P5	-5.601	-4.123	1.653	P.3	1	PIZ0	0.000	
44	 O51	-7.096	-3.558	1.457	O.co2	1	PIZ0	0.000	
45	 O52	-5.532	-5.648	1.143	O.co2	1	PIZ0	0.000	
46	 O53	-5.236	-4.065	3.086	O.co2	1	PIZ0	0.000	
47	  C6	-2.491	-2.119	1.339	C.3	1	PIZ0	0.000	
48	  O6	-2.976	-1.802	2.646	O.3	1	PIZ0	0.000	
49	  C9	1.273	3.123	4.177	C.3	1	PIZ0	0.000	
50	 OA1	0.363	2.659	3.145	O.3	1	PIZ0	0.000	
51	 CA1	-0.792	3.327	3.006	C.2	1	PIZ0	0.000	
52	 OA2	-1.036	4.268	3.723	O.co2	1	PIZ0	0.000	
53	 CA2	-1.786	2.903	1.954	C.3	1	PIZ0	0.000	
54	 CA3	-3.007	3.823	2.007	C.3	1	PIZ0	0.000	
55	 CA4	-4.016	3.393	0.940	C.3	1	PIZ0	0.000	
56	 CA5	-5.237	4.313	0.992	C.3	1	PIZ0	0.000	
57	 CA6	-6.246	3.883	-0.075	C.3	1	PIZ0	0.000	
58	 CA7	-7.467	4.802	-0.023	C.3	1	PIZ0	0.000	
59	 CA8	-8.476	4.372	-1.089	C.3	1	PIZ0	0.000	
60	 CA9	-9.697	5.292	-1.037	C.3	1	PIZ0	0.000	
61	 CAA	-10.706	4.862	-2.104	C.3	1	PIZ0	0.000	
62	 CAB	-11.927	5.782	-2.052	C.3	1	PIZ0	0.000	
63	 CAC	-12.936	5.352	-3.119	C.3	1	PIZ0	0.000	
64	 CAD	-14.157	6.271	-3.066	C.3	1	PIZ0	0.000	
65	 CAE	-15.166	5.841	-4.134	C.3	1	PIZ0	0.000	
66	 CAF	-16.388	6.761	-4.081	C.3	1	PIZ0	0.000	
67	 CAG	-17.396	6.331	-5.148	C.3	1	PIZ0	0.000	
@<TRIPOS>BOND
1 1 2 1
2 2 3 1
3 3 4 1
4 4 5 1
5 5 6 1
6 6 7 1
7 7 8 1
8 8 9 1
9 9 10 1
10 10 11 1
11 11 12 1
12 12 13 1
13 13 14 1
14 14 15 1
15 15 16 1
16 16 17 2
17 16 18 1
18 18 19 1
19 19 20 1
20 20 21 1
21 21 22 1
22 22 23 2
23 22 24 1
24 22 25 1
25 25 26 1
26 26 27 1
27 27 28 1
28 27 29 1
29 29 30 1
30 30 31 1
31 31 32 1
32 31 33 1
33 31 34 2
34 29 35 1
35 35 36 1
36 36 37 1
37 37 38 1
38 37 39 1
39 37 40 2
40 35 41 1
41 41 47 1
42 41 42 1
43 42 43 1
44 43 45 1
45 43 44 1
46 43 46 2
47 26 47 1
48 47 48 1
49 19 49 1
50 49 50 1
51 50 51 1
52 51 52 2
53 51 53 1
54 53 54 1
55 54 55 1
56 55 56 1
57 56 57 1
58 57 58 1
59 58 59 1
60 59 60 1
61 60 61 1
62 61 62 1
63 62 63 1
64 63 64 1
65 64 65 1
66 65 66 1
67 66 67 1
@<TRIPOS>SUBSTRUCTURE
1	PIZ0	1	GROUP	1 ****	PIZ
